
**** 08/26/14 11:20:26 ***** PSpice 16.6.0 (October 2012) ***** ID# 0 ********

 ** Profile: "AC_ANALYSIS-AC"  [ D:\Cadence\SPB_16.6\tools\capture\tclscripts\caplearningresources\hybrid\supportfiles\AnalysesUsingP


 ****     CIRCUIT DESCRIPTION


******************************************************************************




** Creating circuit file "AC.cir" 
** WARNING: THIS AUTOMATICALLY GENERATED FILE MAY BE OVERWRITTEN BY SUBSEQUENT SIMULATIONS

*Libraries: 
* Profile Libraries :
* Local Libraries :
* From [PSPICE NETLIST] section of C:\Users\nitint\AppData\Roaming\SPB_Data\cdssetup\OrCAD_PSpice/16.6.0/PSpice.ini file:
.lib "nom.lib" 

*Analysis directives: 
.AC DEC 100 10 100k
.OPTIONS ADVCONV
.PROBE64 V(alias(*)) I(alias(*)) W(alias(*)) D(alias(*)) NOISE(alias(*)) 
.INC "..\AC_ANALYSIS.net" 



**** INCLUDING AC_ANALYSIS.net ****
* source ANALYSESUSINGPSPICE
V_PRINT4         N01158 0 0V
          
.PRINT        AC 
+ IM(V_PRINT4) 
+ IP(V_PRINT4)    
V_V1         IN 0 DC 0Vdc AC 1Vac 
C_C1         OUT N01158  1u  TC=0,0 
R_R1         OUT IN  500 TC=0,0 
           
.PRINT         AC 
+ VM([OUT]) 
+ VP([OUT])    

**** RESUMING AC.cir ****
.END

**** 08/26/14 11:20:26 ***** PSpice 16.6.0 (October 2012) ***** ID# 0 ********

 ** Profile: "AC_ANALYSIS-AC"  [ D:\Cadence\SPB_16.6\tools\capture\tclscripts\caplearningresources\hybrid\supportfiles\AnalysesUsingP


 ****     SMALL SIGNAL BIAS SOLUTION       TEMPERATURE =   27.000 DEG C


******************************************************************************



 NODE   VOLTAGE     NODE   VOLTAGE     NODE   VOLTAGE     NODE   VOLTAGE


(   IN)    0.0000  (  OUT)    0.0000  (N01158)    0.0000 




    VOLTAGE SOURCE CURRENTS
    NAME         CURRENT

    V_PRINT4     0.000E+00
    V_V1         0.000E+00

    TOTAL POWER DISSIPATION   0.00E+00  WATTS


**** 08/26/14 11:20:26 ***** PSpice 16.6.0 (October 2012) ***** ID# 0 ********

 ** Profile: "AC_ANALYSIS-AC"  [ D:\Cadence\SPB_16.6\tools\capture\tclscripts\caplearningresources\hybrid\supportfiles\AnalysesUsingP


 ****     AC ANALYSIS                      TEMPERATURE =   27.000 DEG C


******************************************************************************



  FREQ        IM(V_PRINT4)IP(V_PRINT4)


   1.000E+01   6.280E-05   8.820E+01
   1.023E+01   6.426E-05   8.816E+01
   1.047E+01   6.576E-05   8.812E+01
   1.072E+01   6.729E-05   8.807E+01
   1.096E+01   6.885E-05   8.803E+01
   1.122E+01   7.045E-05   8.798E+01
   1.148E+01   7.209E-05   8.793E+01
   1.175E+01   7.377E-05   8.789E+01
   1.202E+01   7.549E-05   8.784E+01
   1.230E+01   7.724E-05   8.779E+01
   1.259E+01   7.904E-05   8.774E+01
   1.288E+01   8.088E-05   8.768E+01
   1.318E+01   8.276E-05   8.763E+01
   1.349E+01   8.468E-05   8.757E+01
   1.380E+01   8.665E-05   8.752E+01
   1.413E+01   8.867E-05   8.746E+01
   1.445E+01   9.073E-05   8.740E+01
   1.479E+01   9.284E-05   8.734E+01
   1.514E+01   9.499E-05   8.728E+01
   1.549E+01   9.720E-05   8.721E+01
   1.585E+01   9.946E-05   8.715E+01
   1.622E+01   1.018E-04   8.708E+01
   1.660E+01   1.041E-04   8.702E+01
   1.698E+01   1.066E-04   8.695E+01
   1.738E+01   1.090E-04   8.688E+01
   1.778E+01   1.116E-04   8.680E+01
   1.820E+01   1.141E-04   8.673E+01
   1.862E+01   1.168E-04   8.665E+01
   1.905E+01   1.195E-04   8.657E+01
   1.950E+01   1.223E-04   8.649E+01
   1.995E+01   1.251E-04   8.641E+01
   2.042E+01   1.280E-04   8.633E+01
   2.089E+01   1.310E-04   8.624E+01
   2.138E+01   1.340E-04   8.616E+01
   2.188E+01   1.371E-04   8.607E+01
   2.239E+01   1.403E-04   8.598E+01
   2.291E+01   1.436E-04   8.588E+01
   2.344E+01   1.469E-04   8.579E+01
   2.399E+01   1.503E-04   8.569E+01
   2.455E+01   1.538E-04   8.559E+01
   2.512E+01   1.573E-04   8.549E+01
   2.570E+01   1.610E-04   8.538E+01
   2.630E+01   1.647E-04   8.528E+01
   2.692E+01   1.685E-04   8.517E+01
   2.754E+01   1.724E-04   8.505E+01
   2.818E+01   1.764E-04   8.494E+01
   2.884E+01   1.805E-04   8.482E+01
   2.951E+01   1.846E-04   8.470E+01
   3.020E+01   1.889E-04   8.458E+01
   3.090E+01   1.933E-04   8.445E+01
   3.162E+01   1.977E-04   8.433E+01
   3.236E+01   2.023E-04   8.420E+01
   3.311E+01   2.069E-04   8.406E+01
   3.388E+01   2.117E-04   8.392E+01
   3.467E+01   2.166E-04   8.378E+01
   3.548E+01   2.216E-04   8.364E+01
   3.631E+01   2.267E-04   8.349E+01
   3.715E+01   2.319E-04   8.334E+01
   3.802E+01   2.372E-04   8.319E+01
   3.890E+01   2.426E-04   8.303E+01
   3.981E+01   2.482E-04   8.287E+01
   4.074E+01   2.539E-04   8.271E+01
   4.169E+01   2.597E-04   8.254E+01
   4.266E+01   2.657E-04   8.237E+01
   4.365E+01   2.717E-04   8.219E+01
   4.467E+01   2.779E-04   8.201E+01
   4.571E+01   2.843E-04   8.183E+01
   4.677E+01   2.908E-04   8.164E+01
   4.786E+01   2.974E-04   8.145E+01
   4.898E+01   3.042E-04   8.125E+01
   5.012E+01   3.111E-04   8.105E+01
   5.129E+01   3.181E-04   8.085E+01
   5.248E+01   3.254E-04   8.064E+01
   5.370E+01   3.327E-04   8.042E+01
   5.495E+01   3.403E-04   8.020E+01
   5.623E+01   3.479E-04   7.998E+01
   5.754E+01   3.558E-04   7.975E+01
   5.888E+01   3.638E-04   7.952E+01
   6.026E+01   3.720E-04   7.928E+01
   6.166E+01   3.803E-04   7.904E+01
   6.310E+01   3.889E-04   7.879E+01
   6.457E+01   3.976E-04   7.853E+01
   6.607E+01   4.065E-04   7.827E+01
   6.761E+01   4.155E-04   7.801E+01
   6.918E+01   4.248E-04   7.774E+01
   7.079E+01   4.342E-04   7.746E+01
   7.244E+01   4.438E-04   7.718E+01
   7.413E+01   4.536E-04   7.689E+01
   7.586E+01   4.636E-04   7.660E+01
   7.762E+01   4.738E-04   7.630E+01
   7.943E+01   4.842E-04   7.599E+01
   8.128E+01   4.948E-04   7.568E+01
   8.318E+01   5.056E-04   7.536E+01
   8.511E+01   5.166E-04   7.503E+01
   8.710E+01   5.278E-04   7.470E+01
   8.913E+01   5.393E-04   7.436E+01
   9.120E+01   5.509E-04   7.401E+01
   9.333E+01   5.627E-04   7.366E+01
   9.550E+01   5.747E-04   7.330E+01
   9.772E+01   5.870E-04   7.293E+01
   1.000E+02   5.994E-04   7.256E+01
   1.023E+02   6.121E-04   7.218E+01
   1.047E+02   6.250E-04   7.179E+01
   1.072E+02   6.381E-04   7.140E+01
   1.096E+02   6.514E-04   7.099E+01
   1.122E+02   6.649E-04   7.058E+01
   1.148E+02   6.786E-04   7.017E+01
   1.175E+02   6.925E-04   6.974E+01
   1.202E+02   7.067E-04   6.931E+01
   1.230E+02   7.210E-04   6.887E+01
   1.259E+02   7.356E-04   6.842E+01
   1.288E+02   7.503E-04   6.797E+01
   1.318E+02   7.653E-04   6.750E+01
   1.349E+02   7.804E-04   6.703E+01
   1.380E+02   7.957E-04   6.656E+01
   1.413E+02   8.112E-04   6.607E+01
   1.445E+02   8.269E-04   6.558E+01
   1.479E+02   8.428E-04   6.508E+01
   1.514E+02   8.588E-04   6.457E+01
   1.549E+02   8.751E-04   6.405E+01
   1.585E+02   8.914E-04   6.353E+01
   1.622E+02   9.080E-04   6.300E+01
   1.660E+02   9.246E-04   6.246E+01
   1.698E+02   9.414E-04   6.192E+01
   1.738E+02   9.584E-04   6.137E+01
   1.778E+02   9.754E-04   6.081E+01
   1.820E+02   9.926E-04   6.024E+01
   1.862E+02   1.010E-03   5.967E+01
   1.905E+02   1.027E-03   5.909E+01
   1.950E+02   1.045E-03   5.851E+01
   1.995E+02   1.062E-03   5.792E+01
   2.042E+02   1.080E-03   5.732E+01
   2.089E+02   1.097E-03   5.672E+01
   2.138E+02   1.115E-03   5.611E+01
   2.188E+02   1.133E-03   5.550E+01
   2.239E+02   1.151E-03   5.488E+01
   2.291E+02   1.168E-03   5.426E+01
   2.344E+02   1.186E-03   5.363E+01
   2.399E+02   1.204E-03   5.300E+01
   2.455E+02   1.221E-03   5.236E+01
   2.512E+02   1.239E-03   5.172E+01
   2.570E+02   1.257E-03   5.108E+01
   2.630E+02   1.274E-03   5.043E+01
   2.692E+02   1.291E-03   4.978E+01
   2.754E+02   1.309E-03   4.913E+01
   2.818E+02   1.326E-03   4.848E+01
   2.884E+02   1.343E-03   4.782E+01
   2.951E+02   1.360E-03   4.716E+01
   3.020E+02   1.377E-03   4.651E+01
   3.090E+02   1.393E-03   4.585E+01
   3.162E+02   1.410E-03   4.519E+01
   3.236E+02   1.426E-03   4.453E+01
   3.311E+02   1.442E-03   4.387E+01
   3.388E+02   1.458E-03   4.321E+01
   3.467E+02   1.473E-03   4.255E+01
   3.548E+02   1.489E-03   4.190E+01
   3.631E+02   1.504E-03   4.124E+01
   3.715E+02   1.519E-03   4.059E+01
   3.802E+02   1.533E-03   3.994E+01
   3.890E+02   1.548E-03   3.929E+01
   3.981E+02   1.562E-03   3.864E+01
   4.074E+02   1.576E-03   3.800E+01
   4.169E+02   1.590E-03   3.736E+01
   4.266E+02   1.603E-03   3.673E+01
   4.365E+02   1.616E-03   3.610E+01
   4.467E+02   1.629E-03   3.547E+01
   4.571E+02   1.641E-03   3.485E+01
   4.677E+02   1.653E-03   3.424E+01
   4.786E+02   1.665E-03   3.363E+01
   4.898E+02   1.677E-03   3.302E+01
   5.012E+02   1.688E-03   3.242E+01
   5.129E+02   1.699E-03   3.183E+01
   5.248E+02   1.710E-03   3.124E+01
   5.370E+02   1.720E-03   3.066E+01
   5.495E+02   1.731E-03   3.008E+01
   5.623E+02   1.741E-03   2.951E+01
   5.754E+02   1.750E-03   2.895E+01
   5.888E+02   1.759E-03   2.839E+01
   6.026E+02   1.768E-03   2.785E+01
   6.166E+02   1.777E-03   2.730E+01
   6.310E+02   1.786E-03   2.677E+01
   6.457E+02   1.794E-03   2.624E+01
   6.607E+02   1.802E-03   2.572E+01
   6.761E+02   1.809E-03   2.521E+01
   6.918E+02   1.817E-03   2.471E+01
   7.079E+02   1.824E-03   2.421E+01
   7.244E+02   1.831E-03   2.372E+01
   7.413E+02   1.838E-03   2.324E+01
   7.586E+02   1.844E-03   2.276E+01
   7.762E+02   1.850E-03   2.230E+01
   7.943E+02   1.856E-03   2.184E+01
   8.128E+02   1.862E-03   2.139E+01
   8.318E+02   1.868E-03   2.094E+01
   8.511E+02   1.873E-03   2.050E+01
   8.710E+02   1.878E-03   2.008E+01
   8.913E+02   1.883E-03   1.965E+01
   9.120E+02   1.888E-03   1.924E+01
   9.333E+02   1.893E-03   1.883E+01
   9.550E+02   1.897E-03   1.843E+01
   9.772E+02   1.902E-03   1.804E+01
   1.000E+03   1.906E-03   1.766E+01
   1.023E+03   1.910E-03   1.728E+01
   1.047E+03   1.914E-03   1.691E+01
   1.072E+03   1.917E-03   1.654E+01
   1.096E+03   1.921E-03   1.619E+01
   1.122E+03   1.924E-03   1.584E+01
   1.148E+03   1.927E-03   1.550E+01
   1.175E+03   1.930E-03   1.516E+01
   1.202E+03   1.933E-03   1.483E+01
   1.230E+03   1.936E-03   1.451E+01
   1.259E+03   1.939E-03   1.419E+01
   1.288E+03   1.942E-03   1.388E+01
   1.318E+03   1.944E-03   1.358E+01
   1.349E+03   1.947E-03   1.328E+01
   1.380E+03   1.949E-03   1.299E+01
   1.413E+03   1.951E-03   1.270E+01
   1.445E+03   1.953E-03   1.242E+01
   1.479E+03   1.955E-03   1.215E+01
   1.514E+03   1.957E-03   1.188E+01
   1.549E+03   1.959E-03   1.161E+01
   1.585E+03   1.961E-03   1.136E+01
   1.622E+03   1.963E-03   1.110E+01
   1.660E+03   1.964E-03   1.086E+01
   1.698E+03   1.966E-03   1.062E+01
   1.738E+03   1.967E-03   1.038E+01
   1.778E+03   1.969E-03   1.015E+01
   1.820E+03   1.970E-03   9.922E+00
   1.862E+03   1.971E-03   9.701E+00
   1.905E+03   1.973E-03   9.484E+00
   1.950E+03   1.974E-03   9.272E+00
   1.995E+03   1.975E-03   9.064E+00
   2.042E+03   1.976E-03   8.861E+00
   2.089E+03   1.977E-03   8.663E+00
   2.138E+03   1.978E-03   8.468E+00
   2.188E+03   1.979E-03   8.278E+00
   2.239E+03   1.980E-03   8.092E+00
   2.291E+03   1.981E-03   7.910E+00
   2.344E+03   1.982E-03   7.733E+00
   2.399E+03   1.983E-03   7.559E+00
   2.455E+03   1.983E-03   7.389E+00
   2.512E+03   1.984E-03   7.222E+00
   2.570E+03   1.985E-03   7.059E+00
   2.630E+03   1.986E-03   6.900E+00
   2.692E+03   1.986E-03   6.745E+00
   2.754E+03   1.987E-03   6.593E+00
   2.818E+03   1.987E-03   6.444E+00
   2.884E+03   1.988E-03   6.298E+00
   2.951E+03   1.988E-03   6.156E+00
   3.020E+03   1.989E-03   6.017E+00
   3.090E+03   1.989E-03   5.881E+00
   3.162E+03   1.990E-03   5.748E+00
   3.236E+03   1.990E-03   5.618E+00
   3.311E+03   1.991E-03   5.491E+00
   3.388E+03   1.991E-03   5.367E+00
   3.467E+03   1.992E-03   5.245E+00
   3.548E+03   1.992E-03   5.126E+00
   3.631E+03   1.992E-03   5.010E+00
   3.715E+03   1.993E-03   4.897E+00
   3.802E+03   1.993E-03   4.786E+00
   3.890E+03   1.993E-03   4.677E+00
   3.981E+03   1.994E-03   4.571E+00
   4.074E+03   1.994E-03   4.468E+00
   4.169E+03   1.994E-03   4.366E+00
   4.266E+03   1.994E-03   4.267E+00
   4.365E+03   1.995E-03   4.171E+00
   4.467E+03   1.995E-03   4.076E+00
   4.571E+03   1.995E-03   3.984E+00
   4.677E+03   1.995E-03   3.893E+00
   4.786E+03   1.996E-03   3.805E+00
   4.898E+03   1.996E-03   3.718E+00
   5.012E+03   1.996E-03   3.634E+00
   5.129E+03   1.996E-03   3.552E+00
   5.248E+03   1.996E-03   3.471E+00
   5.370E+03   1.997E-03   3.392E+00
   5.495E+03   1.997E-03   3.315E+00
   5.623E+03   1.997E-03   3.240E+00
   5.754E+03   1.997E-03   3.166E+00
   5.888E+03   1.997E-03   3.094E+00
   6.026E+03   1.997E-03   3.024E+00
   6.166E+03   1.997E-03   2.955E+00
   6.310E+03   1.997E-03   2.888E+00
   6.457E+03   1.998E-03   2.822E+00
   6.607E+03   1.998E-03   2.758E+00
   6.761E+03   1.998E-03   2.696E+00
   6.918E+03   1.998E-03   2.634E+00
   7.079E+03   1.998E-03   2.574E+00
   7.244E+03   1.998E-03   2.516E+00
   7.413E+03   1.998E-03   2.459E+00
   7.586E+03   1.998E-03   2.403E+00
   7.762E+03   1.998E-03   2.348E+00
   7.943E+03   1.998E-03   2.295E+00
   8.128E+03   1.998E-03   2.243E+00
   8.318E+03   1.999E-03   2.192E+00
   8.511E+03   1.999E-03   2.142E+00
   8.710E+03   1.999E-03   2.093E+00
   8.913E+03   1.999E-03   2.045E+00
   9.120E+03   1.999E-03   1.999E+00
   9.333E+03   1.999E-03   1.953E+00
   9.550E+03   1.999E-03   1.909E+00
   9.772E+03   1.999E-03   1.866E+00
   1.000E+04   1.999E-03   1.823E+00
   1.023E+04   1.999E-03   1.782E+00
   1.047E+04   1.999E-03   1.741E+00
   1.072E+04   1.999E-03   1.702E+00
   1.096E+04   1.999E-03   1.663E+00
   1.122E+04   1.999E-03   1.625E+00
   1.148E+04   1.999E-03   1.588E+00
   1.175E+04   1.999E-03   1.552E+00
   1.202E+04   1.999E-03   1.517E+00
   1.230E+04   1.999E-03   1.482E+00
   1.259E+04   1.999E-03   1.448E+00
   1.288E+04   1.999E-03   1.415E+00
   1.318E+04   1.999E-03   1.383E+00
   1.349E+04   1.999E-03   1.352E+00
   1.380E+04   1.999E-03   1.321E+00
   1.413E+04   1.999E-03   1.291E+00
   1.445E+04   2.000E-03   1.262E+00
   1.479E+04   2.000E-03   1.233E+00
   1.514E+04   2.000E-03   1.205E+00
   1.549E+04   2.000E-03   1.177E+00
   1.585E+04   2.000E-03   1.151E+00
   1.622E+04   2.000E-03   1.124E+00
   1.660E+04   2.000E-03   1.099E+00
   1.698E+04   2.000E-03   1.074E+00
   1.738E+04   2.000E-03   1.049E+00
   1.778E+04   2.000E-03   1.025E+00
   1.820E+04   2.000E-03   1.002E+00
   1.862E+04   2.000E-03   9.793E-01
   1.905E+04   2.000E-03   9.570E-01
   1.950E+04   2.000E-03   9.353E-01
   1.995E+04   2.000E-03   9.140E-01
   2.042E+04   2.000E-03   8.932E-01
   2.089E+04   2.000E-03   8.728E-01
   2.138E+04   2.000E-03   8.530E-01
   2.188E+04   2.000E-03   8.336E-01
   2.239E+04   2.000E-03   8.146E-01
   2.291E+04   2.000E-03   7.961E-01
   2.344E+04   2.000E-03   7.779E-01
   2.399E+04   2.000E-03   7.602E-01
   2.455E+04   2.000E-03   7.429E-01
   2.512E+04   2.000E-03   7.260E-01
   2.570E+04   2.000E-03   7.095E-01
   2.630E+04   2.000E-03   6.933E-01
   2.692E+04   2.000E-03   6.776E-01
   2.754E+04   2.000E-03   6.621E-01
   2.818E+04   2.000E-03   6.471E-01
   2.884E+04   2.000E-03   6.323E-01
   2.951E+04   2.000E-03   6.180E-01
   3.020E+04   2.000E-03   6.039E-01
   3.090E+04   2.000E-03   5.901E-01
   3.162E+04   2.000E-03   5.767E-01
   3.236E+04   2.000E-03   5.636E-01
   3.311E+04   2.000E-03   5.508E-01
   3.388E+04   2.000E-03   5.382E-01
   3.467E+04   2.000E-03   5.260E-01
   3.548E+04   2.000E-03   5.140E-01
   3.631E+04   2.000E-03   5.023E-01
   3.715E+04   2.000E-03   4.909E-01
   3.802E+04   2.000E-03   4.797E-01
   3.890E+04   2.000E-03   4.688E-01
   3.981E+04   2.000E-03   4.581E-01
   4.074E+04   2.000E-03   4.477E-01
   4.169E+04   2.000E-03   4.375E-01
   4.266E+04   2.000E-03   4.275E-01
   4.365E+04   2.000E-03   4.178E-01
   4.467E+04   2.000E-03   4.083E-01
   4.571E+04   2.000E-03   3.990E-01
   4.677E+04   2.000E-03   3.899E-01
   4.786E+04   2.000E-03   3.810E-01
   4.898E+04   2.000E-03   3.724E-01
   5.012E+04   2.000E-03   3.639E-01
   5.129E+04   2.000E-03   3.556E-01
   5.248E+04   2.000E-03   3.475E-01
   5.370E+04   2.000E-03   3.396E-01
   5.495E+04   2.000E-03   3.319E-01
   5.623E+04   2.000E-03   3.243E-01
   5.754E+04   2.000E-03   3.169E-01
   5.888E+04   2.000E-03   3.097E-01
   6.026E+04   2.000E-03   3.027E-01
   6.166E+04   2.000E-03   2.958E-01
   6.310E+04   2.000E-03   2.890E-01
   6.457E+04   2.000E-03   2.825E-01
   6.607E+04   2.000E-03   2.760E-01
   6.761E+04   2.000E-03   2.698E-01
   6.918E+04   2.000E-03   2.636E-01
   7.079E+04   2.000E-03   2.576E-01
   7.244E+04   2.000E-03   2.518E-01
   7.413E+04   2.000E-03   2.460E-01
   7.586E+04   2.000E-03   2.404E-01
   7.762E+04   2.000E-03   2.349E-01
   7.943E+04   2.000E-03   2.296E-01
   8.128E+04   2.000E-03   2.244E-01
   8.318E+04   2.000E-03   2.193E-01
   8.511E+04   2.000E-03   2.143E-01
   8.710E+04   2.000E-03   2.094E-01
   8.913E+04   2.000E-03   2.046E-01
   9.120E+04   2.000E-03   2.000E-01
   9.333E+04   2.000E-03   1.954E-01
   9.550E+04   2.000E-03   1.910E-01
   9.772E+04   2.000E-03   1.866E-01
   1.000E+05   2.000E-03   1.824E-01

**** 08/26/14 11:20:26 ***** PSpice 16.6.0 (October 2012) ***** ID# 0 ********

 ** Profile: "AC_ANALYSIS-AC"  [ D:\Cadence\SPB_16.6\tools\capture\tclscripts\caplearningresources\hybrid\supportfiles\AnalysesUsingP


 ****     AC ANALYSIS                      TEMPERATURE =   27.000 DEG C


******************************************************************************



  FREQ        VM(OUT)     VP(OUT)     


   1.000E+01   9.995E-01  -1.799E+00
   1.023E+01   9.995E-01  -1.841E+00
   1.047E+01   9.995E-01  -1.884E+00
   1.072E+01   9.994E-01  -1.928E+00
   1.096E+01   9.994E-01  -1.973E+00
   1.122E+01   9.994E-01  -2.019E+00
   1.148E+01   9.994E-01  -2.066E+00
   1.175E+01   9.993E-01  -2.114E+00
   1.202E+01   9.993E-01  -2.163E+00
   1.230E+01   9.993E-01  -2.213E+00
   1.259E+01   9.992E-01  -2.265E+00
   1.288E+01   9.992E-01  -2.318E+00
   1.318E+01   9.991E-01  -2.372E+00
   1.349E+01   9.991E-01  -2.427E+00
   1.380E+01   9.991E-01  -2.483E+00
   1.413E+01   9.990E-01  -2.541E+00
   1.445E+01   9.990E-01  -2.600E+00
   1.479E+01   9.989E-01  -2.660E+00
   1.514E+01   9.989E-01  -2.722E+00
   1.549E+01   9.988E-01  -2.786E+00
   1.585E+01   9.988E-01  -2.850E+00
   1.622E+01   9.987E-01  -2.917E+00
   1.660E+01   9.986E-01  -2.985E+00
   1.698E+01   9.986E-01  -3.054E+00
   1.738E+01   9.985E-01  -3.125E+00
   1.778E+01   9.984E-01  -3.198E+00
   1.820E+01   9.984E-01  -3.272E+00
   1.862E+01   9.983E-01  -3.348E+00
   1.905E+01   9.982E-01  -3.426E+00
   1.950E+01   9.981E-01  -3.505E+00
   1.995E+01   9.980E-01  -3.587E+00
   2.042E+01   9.979E-01  -3.670E+00
   2.089E+01   9.979E-01  -3.755E+00
   2.138E+01   9.978E-01  -3.843E+00
   2.188E+01   9.976E-01  -3.932E+00
   2.239E+01   9.975E-01  -4.023E+00
   2.291E+01   9.974E-01  -4.116E+00
   2.344E+01   9.973E-01  -4.212E+00
   2.399E+01   9.972E-01  -4.310E+00
   2.455E+01   9.970E-01  -4.410E+00
   2.512E+01   9.969E-01  -4.512E+00
   2.570E+01   9.968E-01  -4.617E+00
   2.630E+01   9.966E-01  -4.724E+00
   2.692E+01   9.964E-01  -4.833E+00
   2.754E+01   9.963E-01  -4.945E+00
   2.818E+01   9.961E-01  -5.060E+00
   2.884E+01   9.959E-01  -5.177E+00
   2.951E+01   9.957E-01  -5.297E+00
   3.020E+01   9.955E-01  -5.420E+00
   3.090E+01   9.953E-01  -5.545E+00
   3.162E+01   9.951E-01  -5.673E+00
   3.236E+01   9.949E-01  -5.805E+00
   3.311E+01   9.946E-01  -5.939E+00
   3.388E+01   9.944E-01  -6.076E+00
   3.467E+01   9.941E-01  -6.217E+00
   3.548E+01   9.938E-01  -6.360E+00
   3.631E+01   9.936E-01  -6.507E+00
   3.715E+01   9.933E-01  -6.658E+00
   3.802E+01   9.929E-01  -6.811E+00
   3.890E+01   9.926E-01  -6.968E+00
   3.981E+01   9.923E-01  -7.129E+00
   4.074E+01   9.919E-01  -7.293E+00
   4.169E+01   9.915E-01  -7.461E+00
   4.266E+01   9.911E-01  -7.633E+00
   4.365E+01   9.907E-01  -7.809E+00
   4.467E+01   9.903E-01  -7.988E+00
   4.571E+01   9.898E-01  -8.172E+00
   4.677E+01   9.894E-01  -8.359E+00
   4.786E+01   9.889E-01  -8.551E+00
   4.898E+01   9.884E-01  -8.747E+00
   5.012E+01   9.878E-01  -8.948E+00
   5.129E+01   9.873E-01  -9.153E+00
   5.248E+01   9.867E-01  -9.362E+00
   5.370E+01   9.861E-01  -9.576E+00
   5.495E+01   9.854E-01  -9.795E+00
   5.623E+01   9.848E-01  -1.002E+01
   5.754E+01   9.840E-01  -1.025E+01
   5.888E+01   9.833E-01  -1.048E+01
   6.026E+01   9.826E-01  -1.072E+01
   6.166E+01   9.818E-01  -1.096E+01
   6.310E+01   9.809E-01  -1.121E+01
   6.457E+01   9.800E-01  -1.147E+01
   6.607E+01   9.791E-01  -1.173E+01
   6.761E+01   9.782E-01  -1.199E+01
   6.918E+01   9.772E-01  -1.226E+01
   7.079E+01   9.761E-01  -1.254E+01
   7.244E+01   9.751E-01  -1.282E+01
   7.413E+01   9.739E-01  -1.311E+01
   7.586E+01   9.728E-01  -1.340E+01
   7.762E+01   9.715E-01  -1.371E+01
   7.943E+01   9.702E-01  -1.401E+01
   8.128E+01   9.689E-01  -1.432E+01
   8.318E+01   9.675E-01  -1.464E+01
   8.511E+01   9.661E-01  -1.497E+01
   8.710E+01   9.645E-01  -1.530E+01
   8.913E+01   9.630E-01  -1.564E+01
   9.120E+01   9.613E-01  -1.599E+01
   9.333E+01   9.596E-01  -1.634E+01
   9.550E+01   9.578E-01  -1.670E+01
   9.772E+01   9.560E-01  -1.707E+01
   1.000E+02   9.540E-01  -1.744E+01
   1.023E+02   9.520E-01  -1.782E+01
   1.047E+02   9.499E-01  -1.821E+01
   1.072E+02   9.477E-01  -1.860E+01
   1.096E+02   9.455E-01  -1.901E+01
   1.122E+02   9.431E-01  -1.942E+01
   1.148E+02   9.407E-01  -1.983E+01
   1.175E+02   9.381E-01  -2.026E+01
   1.202E+02   9.355E-01  -2.069E+01
   1.230E+02   9.328E-01  -2.113E+01
   1.259E+02   9.299E-01  -2.158E+01
   1.288E+02   9.270E-01  -2.203E+01
   1.318E+02   9.239E-01  -2.250E+01
   1.349E+02   9.207E-01  -2.297E+01
   1.380E+02   9.174E-01  -2.344E+01
   1.413E+02   9.140E-01  -2.393E+01
   1.445E+02   9.105E-01  -2.442E+01
   1.479E+02   9.069E-01  -2.492E+01
   1.514E+02   9.031E-01  -2.543E+01
   1.549E+02   8.992E-01  -2.595E+01
   1.585E+02   8.952E-01  -2.647E+01
   1.622E+02   8.910E-01  -2.700E+01
   1.660E+02   8.867E-01  -2.754E+01
   1.698E+02   8.823E-01  -2.808E+01
   1.738E+02   8.777E-01  -2.863E+01
   1.778E+02   8.730E-01  -2.919E+01
   1.820E+02   8.682E-01  -2.976E+01
   1.862E+02   8.632E-01  -3.033E+01
   1.905E+02   8.580E-01  -3.091E+01
   1.950E+02   8.527E-01  -3.149E+01
   1.995E+02   8.473E-01  -3.208E+01
   2.042E+02   8.417E-01  -3.268E+01
   2.089E+02   8.360E-01  -3.328E+01
   2.138E+02   8.301E-01  -3.389E+01
   2.188E+02   8.241E-01  -3.450E+01
   2.239E+02   8.180E-01  -3.512E+01
   2.291E+02   8.117E-01  -3.574E+01
   2.344E+02   8.052E-01  -3.637E+01
   2.399E+02   7.986E-01  -3.700E+01
   2.455E+02   7.919E-01  -3.764E+01
   2.512E+02   7.850E-01  -3.828E+01
   2.570E+02   7.780E-01  -3.892E+01
   2.630E+02   7.709E-01  -3.957E+01
   2.692E+02   7.636E-01  -4.022E+01
   2.754E+02   7.562E-01  -4.087E+01
   2.818E+02   7.487E-01  -4.152E+01
   2.884E+02   7.411E-01  -4.218E+01
   2.951E+02   7.333E-01  -4.284E+01
   3.020E+02   7.255E-01  -4.349E+01
   3.090E+02   7.175E-01  -4.415E+01
   3.162E+02   7.094E-01  -4.481E+01
   3.236E+02   7.013E-01  -4.547E+01
   3.311E+02   6.930E-01  -4.613E+01
   3.388E+02   6.847E-01  -4.679E+01
   3.467E+02   6.763E-01  -4.745E+01
   3.548E+02   6.678E-01  -4.810E+01
   3.631E+02   6.592E-01  -4.876E+01
   3.715E+02   6.506E-01  -4.941E+01
   3.802E+02   6.420E-01  -5.006E+01
   3.890E+02   6.332E-01  -5.071E+01
   3.981E+02   6.245E-01  -5.136E+01
   4.074E+02   6.157E-01  -5.200E+01
   4.169E+02   6.069E-01  -5.264E+01
   4.266E+02   5.980E-01  -5.327E+01
   4.365E+02   5.892E-01  -5.390E+01
   4.467E+02   5.803E-01  -5.453E+01
   4.571E+02   5.715E-01  -5.515E+01
   4.677E+02   5.626E-01  -5.576E+01
   4.786E+02   5.538E-01  -5.637E+01
   4.898E+02   5.449E-01  -5.698E+01
   5.012E+02   5.361E-01  -5.758E+01
   5.129E+02   5.273E-01  -5.817E+01
   5.248E+02   5.186E-01  -5.876E+01
   5.370E+02   5.099E-01  -5.934E+01
   5.495E+02   5.012E-01  -5.992E+01
   5.623E+02   4.926E-01  -6.049E+01
   5.754E+02   4.840E-01  -6.105E+01
   5.888E+02   4.755E-01  -6.161E+01
   6.026E+02   4.671E-01  -6.215E+01
   6.166E+02   4.587E-01  -6.270E+01
   6.310E+02   4.504E-01  -6.323E+01
   6.457E+02   4.422E-01  -6.376E+01
   6.607E+02   4.340E-01  -6.428E+01
   6.761E+02   4.260E-01  -6.479E+01
   6.918E+02   4.180E-01  -6.529E+01
   7.079E+02   4.101E-01  -6.579E+01
   7.244E+02   4.023E-01  -6.628E+01
   7.413E+02   3.946E-01  -6.676E+01
   7.586E+02   3.869E-01  -6.724E+01
   7.762E+02   3.794E-01  -6.770E+01
   7.943E+02   3.720E-01  -6.816E+01
   8.128E+02   3.646E-01  -6.861E+01
   8.318E+02   3.574E-01  -6.906E+01
   8.511E+02   3.503E-01  -6.950E+01
   8.710E+02   3.433E-01  -6.992E+01
   8.913E+02   3.363E-01  -7.035E+01
   9.120E+02   3.295E-01  -7.076E+01
   9.333E+02   3.228E-01  -7.117E+01
   9.550E+02   3.162E-01  -7.157E+01
   9.772E+02   3.097E-01  -7.196E+01
   1.000E+03   3.033E-01  -7.234E+01
   1.023E+03   2.970E-01  -7.272E+01
   1.047E+03   2.908E-01  -7.309E+01
   1.072E+03   2.848E-01  -7.346E+01
   1.096E+03   2.788E-01  -7.381E+01
   1.122E+03   2.729E-01  -7.416E+01
   1.148E+03   2.672E-01  -7.450E+01
   1.175E+03   2.615E-01  -7.484E+01
   1.202E+03   2.559E-01  -7.517E+01
   1.230E+03   2.505E-01  -7.549E+01
   1.259E+03   2.451E-01  -7.581E+01
   1.288E+03   2.399E-01  -7.612E+01
   1.318E+03   2.347E-01  -7.643E+01
   1.349E+03   2.297E-01  -7.672E+01
   1.380E+03   2.247E-01  -7.701E+01
   1.413E+03   2.198E-01  -7.730E+01
   1.445E+03   2.151E-01  -7.758E+01
   1.479E+03   2.104E-01  -7.786E+01
   1.514E+03   2.058E-01  -7.812E+01
   1.549E+03   2.013E-01  -7.839E+01
   1.585E+03   1.969E-01  -7.864E+01
   1.622E+03   1.926E-01  -7.890E+01
   1.660E+03   1.884E-01  -7.914E+01
   1.698E+03   1.842E-01  -7.938E+01
   1.738E+03   1.802E-01  -7.962E+01
   1.778E+03   1.762E-01  -7.985E+01
   1.820E+03   1.723E-01  -8.008E+01
   1.862E+03   1.685E-01  -8.030E+01
   1.905E+03   1.648E-01  -8.052E+01
   1.950E+03   1.611E-01  -8.073E+01
   1.995E+03   1.575E-01  -8.094E+01
   2.042E+03   1.540E-01  -8.114E+01
   2.089E+03   1.506E-01  -8.134E+01
   2.138E+03   1.473E-01  -8.153E+01
   2.188E+03   1.440E-01  -8.172E+01
   2.239E+03   1.408E-01  -8.191E+01
   2.291E+03   1.376E-01  -8.209E+01
   2.344E+03   1.346E-01  -8.227E+01
   2.399E+03   1.315E-01  -8.244E+01
   2.455E+03   1.286E-01  -8.261E+01
   2.512E+03   1.257E-01  -8.278E+01
   2.570E+03   1.229E-01  -8.294E+01
   2.630E+03   1.201E-01  -8.310E+01
   2.692E+03   1.174E-01  -8.326E+01
   2.754E+03   1.148E-01  -8.341E+01
   2.818E+03   1.122E-01  -8.356E+01
   2.884E+03   1.097E-01  -8.370E+01
   2.951E+03   1.072E-01  -8.384E+01
   3.020E+03   1.048E-01  -8.398E+01
   3.090E+03   1.025E-01  -8.412E+01
   3.162E+03   1.002E-01  -8.425E+01
   3.236E+03   9.789E-02  -8.438E+01
   3.311E+03   9.569E-02  -8.451E+01
   3.388E+03   9.353E-02  -8.463E+01
   3.467E+03   9.142E-02  -8.475E+01
   3.548E+03   8.935E-02  -8.487E+01
   3.631E+03   8.733E-02  -8.499E+01
   3.715E+03   8.536E-02  -8.510E+01
   3.802E+03   8.343E-02  -8.521E+01
   3.890E+03   8.155E-02  -8.532E+01
   3.981E+03   7.970E-02  -8.543E+01
   4.074E+03   7.790E-02  -8.553E+01
   4.169E+03   7.614E-02  -8.563E+01
   4.266E+03   7.441E-02  -8.573E+01
   4.365E+03   7.273E-02  -8.583E+01
   4.467E+03   7.108E-02  -8.592E+01
   4.571E+03   6.947E-02  -8.602E+01
   4.677E+03   6.790E-02  -8.611E+01
   4.786E+03   6.636E-02  -8.620E+01
   4.898E+03   6.485E-02  -8.628E+01
   5.012E+03   6.338E-02  -8.637E+01
   5.129E+03   6.195E-02  -8.645E+01
   5.248E+03   6.054E-02  -8.653E+01
   5.370E+03   5.917E-02  -8.661E+01
   5.495E+03   5.783E-02  -8.669E+01
   5.623E+03   5.651E-02  -8.676E+01
   5.754E+03   5.523E-02  -8.683E+01
   5.888E+03   5.398E-02  -8.691E+01
   6.026E+03   5.275E-02  -8.698E+01
   6.166E+03   5.156E-02  -8.704E+01
   6.310E+03   5.038E-02  -8.711E+01
   6.457E+03   4.924E-02  -8.718E+01
   6.607E+03   4.812E-02  -8.724E+01
   6.761E+03   4.703E-02  -8.730E+01
   6.918E+03   4.596E-02  -8.737E+01
   7.079E+03   4.492E-02  -8.743E+01
   7.244E+03   4.390E-02  -8.748E+01
   7.413E+03   4.290E-02  -8.754E+01
   7.586E+03   4.192E-02  -8.760E+01
   7.762E+03   4.097E-02  -8.765E+01
   7.943E+03   4.004E-02  -8.771E+01
   8.128E+03   3.913E-02  -8.776E+01
   8.318E+03   3.824E-02  -8.781E+01
   8.511E+03   3.737E-02  -8.786E+01
   8.710E+03   3.652E-02  -8.791E+01
   8.913E+03   3.569E-02  -8.795E+01
   9.120E+03   3.488E-02  -8.800E+01
   9.333E+03   3.409E-02  -8.805E+01
   9.550E+03   3.331E-02  -8.809E+01
   9.772E+03   3.256E-02  -8.813E+01
   1.000E+04   3.181E-02  -8.818E+01
   1.023E+04   3.109E-02  -8.822E+01
   1.047E+04   3.038E-02  -8.826E+01
   1.072E+04   2.969E-02  -8.830E+01
   1.096E+04   2.902E-02  -8.834E+01
   1.122E+04   2.836E-02  -8.838E+01
   1.148E+04   2.771E-02  -8.841E+01
   1.175E+04   2.708E-02  -8.845E+01
   1.202E+04   2.647E-02  -8.848E+01
   1.230E+04   2.586E-02  -8.852E+01
   1.259E+04   2.528E-02  -8.855E+01
   1.288E+04   2.470E-02  -8.858E+01
   1.318E+04   2.414E-02  -8.862E+01
   1.349E+04   2.359E-02  -8.865E+01
   1.380E+04   2.305E-02  -8.868E+01
   1.413E+04   2.253E-02  -8.871E+01
   1.445E+04   2.202E-02  -8.874E+01
   1.479E+04   2.152E-02  -8.877E+01
   1.514E+04   2.103E-02  -8.880E+01
   1.549E+04   2.055E-02  -8.882E+01
   1.585E+04   2.008E-02  -8.885E+01
   1.622E+04   1.962E-02  -8.888E+01
   1.660E+04   1.918E-02  -8.890E+01
   1.698E+04   1.874E-02  -8.893E+01
   1.738E+04   1.831E-02  -8.895E+01
   1.778E+04   1.790E-02  -8.897E+01
   1.820E+04   1.749E-02  -8.900E+01
   1.862E+04   1.709E-02  -8.902E+01
   1.905E+04   1.670E-02  -8.904E+01
   1.950E+04   1.632E-02  -8.906E+01
   1.995E+04   1.595E-02  -8.909E+01
   2.042E+04   1.559E-02  -8.911E+01
   2.089E+04   1.523E-02  -8.913E+01
   2.138E+04   1.489E-02  -8.915E+01
   2.188E+04   1.455E-02  -8.917E+01
   2.239E+04   1.422E-02  -8.919E+01
   2.291E+04   1.389E-02  -8.920E+01
   2.344E+04   1.358E-02  -8.922E+01
   2.399E+04   1.327E-02  -8.924E+01
   2.455E+04   1.297E-02  -8.926E+01
   2.512E+04   1.267E-02  -8.927E+01
   2.570E+04   1.238E-02  -8.929E+01
   2.630E+04   1.210E-02  -8.931E+01
   2.692E+04   1.183E-02  -8.932E+01
   2.754E+04   1.156E-02  -8.934E+01
   2.818E+04   1.129E-02  -8.935E+01
   2.884E+04   1.104E-02  -8.937E+01
   2.951E+04   1.079E-02  -8.938E+01
   3.020E+04   1.054E-02  -8.940E+01
   3.090E+04   1.030E-02  -8.941E+01
   3.162E+04   1.007E-02  -8.942E+01
   3.236E+04   9.836E-03  -8.944E+01
   3.311E+04   9.612E-03  -8.945E+01
   3.388E+04   9.394E-03  -8.946E+01
   3.467E+04   9.180E-03  -8.947E+01
   3.548E+04   8.971E-03  -8.949E+01
   3.631E+04   8.767E-03  -8.950E+01
   3.715E+04   8.567E-03  -8.951E+01
   3.802E+04   8.372E-03  -8.952E+01
   3.890E+04   8.182E-03  -8.953E+01
   3.981E+04   7.995E-03  -8.954E+01
   4.074E+04   7.813E-03  -8.955E+01
   4.169E+04   7.636E-03  -8.956E+01
   4.266E+04   7.462E-03  -8.957E+01
   4.365E+04   7.292E-03  -8.958E+01
   4.467E+04   7.126E-03  -8.959E+01
   4.571E+04   6.964E-03  -8.960E+01
   4.677E+04   6.805E-03  -8.961E+01
   4.786E+04   6.650E-03  -8.962E+01
   4.898E+04   6.499E-03  -8.963E+01
   5.012E+04   6.351E-03  -8.964E+01
   5.129E+04   6.206E-03  -8.964E+01
   5.248E+04   6.065E-03  -8.965E+01
   5.370E+04   5.927E-03  -8.966E+01
   5.495E+04   5.792E-03  -8.967E+01
   5.623E+04   5.660E-03  -8.968E+01
   5.754E+04   5.532E-03  -8.968E+01
   5.888E+04   5.406E-03  -8.969E+01
   6.026E+04   5.283E-03  -8.970E+01
   6.166E+04   5.162E-03  -8.970E+01
   6.310E+04   5.045E-03  -8.971E+01
   6.457E+04   4.930E-03  -8.972E+01
   6.607E+04   4.818E-03  -8.972E+01
   6.761E+04   4.708E-03  -8.973E+01
   6.918E+04   4.601E-03  -8.974E+01
   7.079E+04   4.496E-03  -8.974E+01
   7.244E+04   4.394E-03  -8.975E+01
   7.413E+04   4.294E-03  -8.975E+01
   7.586E+04   4.196E-03  -8.976E+01
   7.762E+04   4.101E-03  -8.977E+01
   7.943E+04   4.007E-03  -8.977E+01
   8.128E+04   3.916E-03  -8.978E+01
   8.318E+04   3.827E-03  -8.978E+01
   8.511E+04   3.740E-03  -8.979E+01
   8.710E+04   3.655E-03  -8.979E+01
   8.913E+04   3.571E-03  -8.980E+01
   9.120E+04   3.490E-03  -8.980E+01
   9.333E+04   3.411E-03  -8.980E+01
   9.550E+04   3.333E-03  -8.981E+01
   9.772E+04   3.257E-03  -8.981E+01
   1.000E+05   3.183E-03  -8.982E+01


          JOB CONCLUDED

**** 08/26/14 11:20:26 ***** PSpice 16.6.0 (October 2012) ***** ID# 0 ********

 ** Profile: "AC_ANALYSIS-AC"  [ D:\Cadence\SPB_16.6\tools\capture\tclscripts\caplearningresources\hybrid\supportfiles\AnalysesUsingP


 ****     JOB STATISTICS SUMMARY


******************************************************************************



  Total job time (using Solver 1)   =         .06
