
**** 08/26/14 11:17:12 ***** PSpice 16.6.0 (October 2012) ***** ID# 0 ********

 ** Profile: "AC_ANALYSIS-AC1"  [ D:\Cadence\SPB_16.6\tools\capture\tclscripts\caplearningresources\hybrid\supportfiles\AnalysesUsing


 ****     CIRCUIT DESCRIPTION


******************************************************************************




** Creating circuit file "AC1.cir" 
** WARNING: THIS AUTOMATICALLY GENERATED FILE MAY BE OVERWRITTEN BY SUBSEQUENT SIMULATIONS

*Libraries: 
* Profile Libraries :
* Local Libraries :
* From [PSPICE NETLIST] section of C:\Users\nitint\AppData\Roaming\SPB_Data\cdssetup\OrCAD_PSpice/16.6.0/PSpice.ini file:
.lib "nom.lib" 

*Analysis directives: 
.AC DEC 1 1k 1k
.OPTIONS ADVCONV
.PROBE64 V(alias(*)) I(alias(*)) W(alias(*)) D(alias(*)) NOISE(alias(*)) 
.INC "..\AC_ANALYSIS.net" 



**** INCLUDING AC_ANALYSIS.net ****
* source ANALYSESUSINGPSPICE
V_PRINT4         N01158 0 0V
          
.PRINT        AC 
+ IM(V_PRINT4) 
+ IP(V_PRINT4)    
V_V1         IN 0 DC 0Vdc AC 1Vac 
C_C1         OUT N01158  1u  TC=0,0 
R_R1         OUT IN  500 TC=0,0 
           
.PRINT         AC 
+ VM([OUT]) 
+ VP([OUT])    

**** RESUMING AC1.cir ****
.END

**** 08/26/14 11:17:12 ***** PSpice 16.6.0 (October 2012) ***** ID# 0 ********

 ** Profile: "AC_ANALYSIS-AC1"  [ D:\Cadence\SPB_16.6\tools\capture\tclscripts\caplearningresources\hybrid\supportfiles\AnalysesUsing


 ****     SMALL SIGNAL BIAS SOLUTION       TEMPERATURE =   27.000 DEG C


******************************************************************************



 NODE   VOLTAGE     NODE   VOLTAGE     NODE   VOLTAGE     NODE   VOLTAGE


(   IN)    0.0000  (  OUT)    0.0000  (N01158)    0.0000 




    VOLTAGE SOURCE CURRENTS
    NAME         CURRENT

    V_PRINT4     0.000E+00
    V_V1         0.000E+00

    TOTAL POWER DISSIPATION   0.00E+00  WATTS


**** 08/26/14 11:17:12 ***** PSpice 16.6.0 (October 2012) ***** ID# 0 ********

 ** Profile: "AC_ANALYSIS-AC1"  [ D:\Cadence\SPB_16.6\tools\capture\tclscripts\caplearningresources\hybrid\supportfiles\AnalysesUsing


 ****     AC ANALYSIS                      TEMPERATURE =   27.000 DEG C


******************************************************************************



  FREQ        IM(V_PRINT4)IP(V_PRINT4)


   1.000E+03   1.906E-03   1.766E+01

**** 08/26/14 11:17:12 ***** PSpice 16.6.0 (October 2012) ***** ID# 0 ********

 ** Profile: "AC_ANALYSIS-AC1"  [ D:\Cadence\SPB_16.6\tools\capture\tclscripts\caplearningresources\hybrid\supportfiles\AnalysesUsing


 ****     AC ANALYSIS                      TEMPERATURE =   27.000 DEG C


******************************************************************************



  FREQ        VM(OUT)     VP(OUT)     


   1.000E+03   3.033E-01  -7.234E+01


          JOB CONCLUDED

**** 08/26/14 11:17:12 ***** PSpice 16.6.0 (October 2012) ***** ID# 0 ********

 ** Profile: "AC_ANALYSIS-AC1"  [ D:\Cadence\SPB_16.6\tools\capture\tclscripts\caplearningresources\hybrid\supportfiles\AnalysesUsing


 ****     JOB STATISTICS SUMMARY


******************************************************************************



  Total job time (using Solver 1)   =         .02
